6
# CELL(abcABC): 1000.00000  1000.00000  1000.00000    90.00000    90.00000    90.00000  Step:         480  Bead:       0 positions{angstrom}  cell{angstrom}
       C -7.67329e-01  3.08301e+00 -6.38549e-01
       H -1.31491e+00  3.55436e+00 -1.40426e+00
       H  1.41697e-01  3.63219e+00 -4.71949e-01
       H -4.79297e-01  2.13789e+00 -1.02052e+00
       O -1.51239e+00  2.91599e+00  5.54717e-01
       H -1.70752e+00  2.49240e+00  1.38678e+00
