6
# CELL(abcABC): 1000.00000  1000.00000  1000.00000    90.00000    90.00000    90.00000  Step:           0  Bead:       0 positions{angstrom}  cell{angstrom}
       C -1.30454e+00  2.36222e+00  3.65381e-01
       H -1.26980e+00  1.65333e+00 -3.81472e-01
       H -4.48607e-01  2.13418e+00  1.04274e+00
       H -2.25502e+00  2.37600e+00  8.97162e-01
       O -9.82847e-01  3.58733e+00 -3.18582e-01
       H -1.39060e+00  3.58597e+00 -1.16906e+00
6
# CELL(abcABC): 1000.00000  1000.00000  1000.00000    90.00000    90.00000    90.00000  Step:           1  Bead:       0 positions{angstrom}  cell{angstrom}
       C -1.29850e+00  2.36318e+00  3.65072e-01
       H -1.27777e+00  1.64283e+00 -3.78562e-01
       H -4.47274e-01  2.13343e+00  1.04258e+00
       H -2.26844e+00  2.37966e+00  9.00454e-01
       O -9.85779e-01  3.58671e+00 -3.19109e-01
       H -1.39597e+00  3.59196e+00 -1.16306e+00
6
# CELL(abcABC): 1000.00000  1000.00000  1000.00000    90.00000    90.00000    90.00000  Step:           2  Bead:       0 positions{angstrom}  cell{angstrom}
       C -1.29231e+00  2.36393e+00  3.64916e-01
       H -1.28699e+00  1.62751e+00 -3.78622e-01
       H -4.48414e-01  2.13325e+00  1.04054e+00
       H -2.27921e+00  2.38355e+00  9.03234e-01
       O -9.88599e-01  3.58651e+00 -3.19228e-01
       H -1.40383e+00  3.59785e+00 -1.15998e+00
6
# CELL(abcABC): 1000.00000  1000.00000  1000.00000    90.00000    90.00000    90.00000  Step:           3  Bead:       0 positions{angstrom}  cell{angstrom}
       C -1.28612e+00  2.36480e+00  3.65010e-01
       H -1.29898e+00  1.60797e+00 -3.81408e-01
       H -4.51373e-01  2.13500e+00  1.03744e+00
       H -2.28682e+00  2.38737e+00  9.04826e-01
       O -9.91253e-01  3.58639e+00 -3.19011e-01
       H -1.41297e+00  3.60343e+00 -1.16025e+00
6
# CELL(abcABC): 1000.00000  1000.00000  1000.00000    90.00000    90.00000    90.00000  Step:           4  Bead:       0 positions{angstrom}  cell{angstrom}
       C -1.28004e+00  2.36546e+00  3.65360e-01
       H -1.31290e+00  1.58583e+00 -3.84276e-01
       H -4.55499e-01  2.14005e+00  1.03526e+00
       H -2.29064e+00  2.39138e+00  9.03404e-01
       O -9.93717e-01  3.58634e+00 -3.18688e-01
       H -1.42436e+00  3.60929e+00 -1.16307e+00
6
# CELL(abcABC): 1000.00000  1000.00000  1000.00000    90.00000    90.00000    90.00000  Step:           5  Bead:       0 positions{angstrom}  cell{angstrom}
       C -1.27431e+00  2.36600e+00  3.65632e-01
       H -1.32837e+00  1.56272e+00 -3.85826e-01
       H -4.61366e-01  2.14542e+00  1.03479e+00
       H -2.29081e+00  2.39612e+00  8.99995e-01
       O -9.95997e-01  3.58633e+00 -3.18315e-01
       H -1.43491e+00  3.61591e+00 -1.16682e+00
6
# CELL(abcABC): 1000.00000  1000.00000  1000.00000    90.00000    90.00000    90.00000  Step:           6  Bead:       0 positions{angstrom}  cell{angstrom}
       C -1.26881e+00  2.36642e+00  3.66031e-01
       H -1.34374e+00  1.53875e+00 -3.84909e-01
       H -4.67655e-01  2.15069e+00  1.03431e+00
       H -2.28790e+00  2.40091e+00  8.95534e-01
       O -9.98218e-01  3.58653e+00 -3.18101e-01
       H -1.44654e+00  3.62178e+00 -1.17095e+00
6
# CELL(abcABC): 1000.00000  1000.00000  1000.00000    90.00000    90.00000    90.00000  Step:           7  Bead:       0 positions{angstrom}  cell{angstrom}
       C -1.26369e+00  2.36673e+00  3.66331e-01
       H -1.35965e+00  1.51694e+00 -3.82474e-01
       H -4.72892e-01  2.15625e+00  1.03475e+00
       H -2.28031e+00  2.40542e+00  8.88533e-01
       O -1.00047e+00  3.58665e+00 -3.17765e-01
       H -1.45816e+00  3.62793e+00 -1.17573e+00
6
# CELL(abcABC): 1000.00000  1000.00000  1000.00000    90.00000    90.00000    90.00000  Step:           8  Bead:       0 positions{angstrom}  cell{angstrom}
       C -1.25924e+00  2.36694e+00  3.66406e-01
       H -1.37426e+00  1.49797e+00 -3.77083e-01
       H -4.77925e-01  2.16167e+00  1.03661e+00
       H -2.26721e+00  2.40838e+00  8.80328e-01
       O -1.00274e+00  3.58676e+00 -3.17509e-01
       H -1.46874e+00  3.63437e+00 -1.17973e+00
6
# CELL(abcABC): 1000.00000  1000.00000  1000.00000    90.00000    90.00000    90.00000  Step:           9  Bead:       0 positions{angstrom}  cell{angstrom}
       C -1.25537e+00  2.36691e+00  3.66048e-01
       H -1.38734e+00  1.48191e+00 -3.68344e-01
       H -4.80601e-01  2.16699e+00  1.04037e+00
       H -2.25044e+00  2.41039e+00  8.70970e-01
       O -1.00504e+00  3.58692e+00 -3.17305e-01
       H -1.47934e+00  3.64093e+00 -1.18184e+00
6
# CELL(abcABC): 1000.00000  1000.00000  1000.00000    90.00000    90.00000    90.00000  Step:          10  Bead:       0 positions{angstrom}  cell{angstrom}
       C -1.25216e+00  2.36637e+00  3.65053e-01
       H -1.39747e+00  1.46971e+00 -3.55093e-01
       H -4.81627e-01  2.17238e+00  1.04485e+00
       H -2.23322e+00  2.41219e+00  8.63651e-01
       O -1.00729e+00  3.58719e+00 -3.17257e-01
       H -1.48786e+00  3.64799e+00 -1.18116e+00
