6
# CELL(abcABC): 1000.00000  1000.00000  1000.00000    90.00000    90.00000    90.00000  Step:         544  Bead:       0 positions{angstrom}  cell{angstrom}
       C -8.02155e-01  2.38898e+00 -3.11697e-01
       H -3.06552e-01  2.75375e+00 -1.23750e+00
       H -1.01426e-02  2.04778e+00  3.09916e-01
       H -1.52988e+00  1.67717e+00 -5.65595e-01
       O -1.43371e+00  3.55431e+00  2.83561e-01
       H -2.34719e+00  3.47611e+00  3.92634e-01
