4
# CELL(abcABC): 1000.00000  1000.00000  1000.00000    90.00000    90.00000    90.00000  Step:         678  Bead:       0 positions{angstrom}  cell{angstrom}
       O -3.14712e+00  1.07627e+00  3.54122e-01
       H -2.59771e+00  9.18917e-01 -4.51791e-01
       H -2.54350e+00  1.18618e+00  1.05803e+00
       H -4.28921e+00  8.81455e-01  4.58310e-01
