14
# CELL(abcABC): 1000.00000  1000.00000  1000.00000    90.00000    90.00000    90.00000  Step:         120  Bead:       0 positions{angstrom}  cell{angstrom}
       C -6.49217e-01  6.94918e-01  8.36518e-02
       C  9.89811e-02 -5.51870e-01  7.27554e-01
       C -1.79688e+00  2.98785e-01 -8.37694e-01
       C -7.32693e-01  1.84396e+00  1.01399e+00
       H -1.38407e+00  1.76743e+00  1.90151e+00
       H -9.61055e-01  2.67813e+00  3.66650e-01
       H  2.54102e-01  1.96601e+00  1.42033e+00
       H -1.36416e+00 -3.85089e-01 -1.62313e+00
       H -2.17486e+00  1.22522e+00 -1.31494e+00
       H -2.60337e+00 -2.06247e-01 -2.20681e-01
       H  9.67599e-01 -2.94212e-01  1.10407e+00
       H  2.26499e-02 -1.37818e+00  7.91235e-02
       H -5.05802e-01 -9.32226e-01  1.66287e+00
       H  2.80378e-01  7.99528e-01 -8.46379e-01
