14
# CELL(abcABC): 1000.00000  1000.00000  1000.00000    90.00000    90.00000    90.00000  Step:          88  Bead:       0 positions{angstrom}  cell{angstrom}
       C -6.42656e-01  6.32176e-01  9.54292e-02
       C  2.15984e-01 -4.55069e-01  7.08594e-01
       C -1.82291e+00  1.83305e-01 -6.98769e-01
       C -7.93277e-01  1.91777e+00  9.01780e-01
       H -1.56212e+00  1.62510e+00  1.64421e+00
       H -1.25838e+00  2.72298e+00  3.19014e-01
       H  1.31342e-01  2.28194e+00  1.34452e+00
       H -1.67706e+00 -5.65812e-01 -1.44509e+00
       H -2.37980e+00  9.60876e-01 -1.21275e+00
       H -2.67535e+00 -2.76083e-01 -9.76779e-02
       H  1.41613e+00 -1.72001e-01  7.62348e-01
       H  2.42885e-01 -1.40042e+00  9.72179e-02
       H -1.26812e-01 -7.09393e-01  1.72160e+00
       H -1.97662e-02  8.64002e-01 -8.36733e-01
