14
# CELL(abcABC): 1000.00000  1000.00000  1000.00000    90.00000    90.00000    90.00000  Step:         635  Bead:       0 positions{angstrom}  cell{angstrom}
       C -8.77269e-01  5.27300e-01 -1.10421e-01
       C  6.11121e-01  1.91944e-02 -8.34087e-03
       C -1.88245e+00 -3.00969e-01  6.61915e-01
       C -9.19539e-01  1.99267e+00  3.96657e-01
       H -9.35843e-01  1.95302e+00  1.47265e+00
       H -1.89776e+00  2.49163e+00  6.67499e-02
       H -1.25449e-01  2.52745e+00 -3.17958e-02
       H -1.92741e+00 -1.32188e+00  2.70419e-01
       H -2.80703e+00  2.24319e-01  7.19597e-01
       H -1.59727e+00 -3.57201e-01  1.72220e+00
       H  7.03044e-01 -1.06185e+00 -2.73017e-01
       H  9.03849e-01  2.31290e-01  1.02133e+00
       H  1.18929e+00  5.69280e-01 -6.64583e-01
       H -1.11332e+00  5.51567e-01 -1.20585e+00
