6
# CELL(abcABC): 1000.00000  1000.00000  1000.00000    90.00000    90.00000    90.00000  Step:         518  Bead:       0 positions{angstrom}  cell{angstrom}
       C -8.11014e-01  3.04625e+00 -6.41963e-01
       H -1.42853e+00  3.63231e+00 -1.32767e+00
       H  1.31328e-01  3.61312e+00 -4.99565e-01
       H -5.91901e-01  2.14932e+00 -1.17760e+00
       O -1.48202e+00  2.92834e+00  5.60840e-01
       H -1.43245e+00  2.66407e+00  1.43839e+00
