6
# CELL(abcABC): 1000.00000  1000.00000  1000.00000    90.00000    90.00000    90.00000  Step:         508  Bead:       0 positions{angstrom}  cell{angstrom}
       C -8.22859e-01  3.00578e+00 -6.56696e-01
       H -1.42923e+00  3.56597e+00 -1.34916e+00
       H  1.19356e-01  3.48599e+00 -5.33720e-01
       H -7.14794e-01  1.99025e+00 -1.08212e+00
       O -1.42296e+00  2.94735e+00  5.88626e-01
       H -2.09328e+00  3.19716e+00  1.13307e+00
