4
# CELL(abcABC): 1000.00000  1000.00000  1000.00000    90.00000    90.00000    90.00000  Step:        2462  Bead:       0 positions{angstrom}  cell{angstrom}
       O -3.15250e+00  1.05674e+00  3.74095e-01
       H -3.36092e+00  1.51673e+00 -4.35444e-01
       H -3.20828e+00  1.34335e-01  1.23075e-01
       H -2.77590e+00  1.64529e+00  1.05989e+00
