4
# CELL(abcABC): 1000.00000  1000.00000  1000.00000    90.00000    90.00000    90.00000  Step:         728  Bead:       0 positions{angstrom}  cell{angstrom}
       O -3.14389e+00  1.06699e+00  3.99160e-01
       H -4.07620e+00  1.20062e+00  2.96983e-01
       H -2.84586e+00  2.09643e-01  3.12151e-02
       H -2.55983e+00  1.72387e+00  2.14685e-02
