4
# CELL(abcABC): 1000.00000  1000.00000  1000.00000    90.00000    90.00000    90.00000  Step:         344  Bead:       0 positions{angstrom}  cell{angstrom}
       O -3.14113e+00  1.07133e+00  3.42505e-01
       H -2.59096e+00  4.64287e-01  7.82647e-01
       H -3.27483e+00  1.86703e+00  8.17286e-01
       H -3.65977e+00  7.33570e-01 -3.51013e-01
