6
# CELL(abcABC): 1000.00000  1000.00000  1000.00000    90.00000    90.00000    90.00000  Step:         463  Bead:       0 positions{angstrom}  cell{angstrom}
       C -7.28278e-01  2.93707e+00 -6.09923e-01
       H -1.20230e+00  3.50681e+00 -1.37736e+00
       H  2.18923e-01  3.38838e+00 -4.13594e-01
       H -5.98899e-01  1.91945e+00 -9.37134e-01
       O -1.50136e+00  3.04092e+00  5.56571e-01
       H -2.41786e+00  2.75840e+00  8.47629e-01
