14
# CELL(abcABC): 1000.00000  1000.00000  1000.00000    90.00000    90.00000    90.00000  Step:         105  Bead:       0 positions{angstrom}  cell{angstrom}
       C -7.67616e-01  6.23814e-01 -1.45674e-01
       C  5.99919e-01  4.59948e-02  4.44595e-01
       C -1.93296e+00 -3.93317e-01  7.78811e-02
       C -9.80971e-01  1.99472e+00  5.63084e-01
       H -1.06477e+00  1.84760e+00  1.61491e+00
       H -1.83702e+00  2.55081e+00  1.95690e-01
       H -7.89916e-02  2.58190e+00  3.79600e-01
       H -1.65154e+00 -1.27437e+00 -4.95561e-01
       H -2.93183e+00 -2.42312e-02 -1.78259e-01
       H -1.87883e+00 -8.05728e-01  1.07815e+00
       H  1.15323e+00 -4.73860e-01 -3.44420e-01
       H  2.90895e-01 -6.44096e-01  1.24821e+00
       H  1.21954e+00  8.25254e-01  8.21860e-01
       H -6.67768e-01  8.30911e-01 -1.22339e+00
