4
# CELL(abcABC): 1000.00000  1000.00000  1000.00000    90.00000    90.00000    90.00000  Step:         406  Bead:       0 positions{angstrom}  cell{angstrom}
       O -3.16396e+00  1.08201e+00  3.59118e-01
       H -3.30833e+00  4.42802e-01  1.09513e+00
       H -2.32411e+00  1.51843e+00  3.90872e-01
       H -3.53078e+00  9.34383e-01 -5.00768e-01
