14
# CELL(abcABC): 1000.00000  1000.00000  1000.00000    90.00000    90.00000    90.00000  Step:         108  Bead:       0 positions{angstrom}  cell{angstrom}
       C -6.38832e-01  6.72592e-01 -7.08604e-02
       C  3.56959e-01 -2.86877e-01  7.07544e-01
       C -1.97775e+00 -9.15184e-02 -3.91575e-01
       C -8.29221e-01  1.98089e+00  7.14205e-01
       H -1.22313e+00  1.92260e+00  1.68308e+00
       H -1.37828e+00  2.72296e+00  1.23160e-01
       H  2.08231e-01  2.35007e+00  8.47204e-01
       H -1.67077e+00 -8.52238e-01 -1.05619e+00
       H -2.72910e+00  5.52071e-01 -8.42441e-01
       H -2.28600e+00 -6.15267e-01  5.10446e-01
       H  1.33990e+00  3.42423e-01  9.75409e-01
       H  5.57394e-01 -1.19787e+00  1.06511e-01
       H -5.29204e-02 -6.08308e-01  1.56553e+00
       H -1.26458e-01  7.51452e-01 -1.04743e+00
