14
# CELL(abcABC): 1000.00000  1000.00000  1000.00000    90.00000    90.00000    90.00000  Step:         109  Bead:       0 positions{angstrom}  cell{angstrom}
       C -6.00962e-01  6.79388e-01  6.42797e-02
       C  1.16154e-01 -5.53974e-01  7.40020e-01
       C -1.85358e+00  2.69765e-01 -8.04166e-01
       C -7.55322e-01  1.87489e+00  9.84994e-01
       H -1.37403e+00  1.81556e+00  1.86742e+00
       H -1.05370e+00  2.75849e+00  4.00872e-01
       H  2.61055e-01  2.03826e+00  1.38457e+00
       H -1.46006e+00 -4.04272e-01 -1.50672e+00
       H -2.22529e+00  1.15424e+00 -1.28921e+00
       H -2.57067e+00 -2.39067e-01 -1.88078e-01
       H  1.24403e+00 -2.67215e-01  1.10716e+00
       H  6.86449e-02 -1.45671e+00  9.15108e-02
       H -3.81213e-01 -8.23144e-01  1.62092e+00
       H  1.88240e-01  8.51560e-01 -9.30749e-01
