14
# CELL(abcABC): 1000.00000  1000.00000  1000.00000    90.00000    90.00000    90.00000  Step:          89  Bead:       0 positions{angstrom}  cell{angstrom}
       C -6.96452e-01  6.44975e-01 -5.80259e-02
       C  5.44446e-01  4.52384e-02  5.83334e-01
       C -1.80438e+00 -3.81652e-01 -1.40221e-01
       C -1.09502e+00  1.98250e+00  5.80298e-01
       H -1.50050e+00  1.73188e+00  1.57311e+00
       H -1.92966e+00  2.37326e+00  5.24301e-03
       H -2.85228e-01  2.69668e+00  6.29273e-01
       H -1.56572e+00 -1.21327e+00 -7.95768e-01
       H -2.74523e+00  2.36397e-02 -5.64165e-01
       H -2.16906e+00 -7.92435e-01  8.33344e-01
       H  1.57558e+00  6.70503e-01  4.41269e-01
       H  8.19693e-01 -9.37824e-01  1.10894e-01
       H  3.34962e-01 -1.34402e-01  1.65808e+00
       H -3.41957e-01  7.59771e-01 -1.09831e+00
