14
# CELL(abcABC): 1000.00000  1000.00000  1000.00000    90.00000    90.00000    90.00000  Step:          92  Bead:       0 positions{angstrom}  cell{angstrom}
       C -6.45353e-01  6.36615e-01  8.59727e-02
       C  2.35461e-01 -4.44840e-01  7.15613e-01
       C -1.84840e+00  1.61519e-01 -6.90664e-01
       C -7.85041e-01  1.92289e+00  8.88374e-01
       H -1.53125e+00  1.71930e+00  1.68854e+00
       H -1.23289e+00  2.74245e+00  3.09441e-01
       H  1.52042e-01  2.28289e+00  1.28077e+00
       H -1.65169e+00 -5.91476e-01 -1.41999e+00
       H -2.41136e+00  9.27279e-01 -1.21796e+00
       H -2.66316e+00 -3.24137e-01 -6.13040e-02
       H  1.36540e+00 -1.60216e-01  8.46878e-01
       H  2.81562e-01 -1.37566e+00  9.33913e-02
       H -1.79638e-01 -6.97045e-01  1.69993e+00
       H -3.23577e-02  8.31679e-01 -8.30816e-01
