14
# CELL(abcABC): 1000.00000  1000.00000  1000.00000    90.00000    90.00000    90.00000  Step:          90  Bead:       0 positions{angstrom}  cell{angstrom}
       C -7.71306e-01  6.06736e-01 -9.50461e-02
       C  6.69017e-01  3.23499e-01  3.15280e-01
       C -1.69312e+00 -5.72737e-01  1.18559e-01
       C -1.25981e+00  1.91193e+00  6.14420e-01
       H -1.37112e+00  1.75172e+00  1.69820e+00
       H -2.25095e+00  2.10774e+00  2.11410e-01
       H -6.29881e-01  2.77814e+00  4.23109e-01
       H -1.39172e+00 -1.40430e+00 -5.26605e-01
       H -2.70346e+00 -2.93447e-01 -2.17523e-01
       H -1.80020e+00 -8.64186e-01  1.17645e+00
       H  1.29327e+00 -1.19354e-01 -5.00327e-01
       H  6.55574e-01 -4.82489e-01  1.05414e+00
       H  1.19208e+00  1.17471e+00  7.70724e-01
       H -7.55238e-01  7.86976e-01 -1.15159e+00
