14
# CELL(abcABC): 1000.00000  1000.00000  1000.00000    90.00000    90.00000    90.00000  Step:          89  Bead:       0 positions{angstrom}  cell{angstrom}
       C -6.53666e-01  6.33720e-01  9.65201e-02
       C  2.14430e-01 -4.51277e-01  7.05614e-01
       C -1.81481e+00  2.06377e-01 -7.24745e-01
       C -7.90436e-01  1.89725e+00  9.25618e-01
       H -1.57436e+00  1.62496e+00  1.66810e+00
       H -1.21440e+00  2.71096e+00  3.26624e-01
       H  1.48821e-01  2.21378e+00  1.34040e+00
       H -1.66437e+00 -5.38264e-01 -1.48269e+00
       H -2.38889e+00  9.60313e-01 -1.23509e+00
       H -2.67797e+00 -2.83847e-01 -1.61916e-01
       H  1.46125e+00 -1.99799e-01  8.02105e-01
       H  2.48978e-01 -1.40065e+00  1.10649e-01
       H -1.55317e-01 -6.97783e-01  1.72443e+00
       H -7.33481e-02  8.47482e-01 -7.47965e-01
