4
# CELL(abcABC): 1000.00000  1000.00000  1000.00000    90.00000    90.00000    90.00000  Step:         214  Bead:       0 positions{angstrom}  cell{angstrom}
       O -3.16258e+00  1.06290e+00  3.49788e-01
       H -2.23140e+00  8.47685e-01  2.79948e-01
       H -3.14788e+00  2.00652e+00  4.22149e-01
       H -3.80580e+00  3.44380e-01  4.31240e-01
