4
# CELL(abcABC): 1000.00000  1000.00000  1000.00000    90.00000    90.00000    90.00000  Step:          77  Bead:       0 positions{angstrom}  cell{angstrom}
       O -3.15300e+00  1.06419e+00  3.79573e-01
       H -2.80948e+00  2.11870e-01  7.40189e-02
       H -2.44556e+00  1.68798e+00  5.21056e-01
       H -4.08221e+00  1.27846e+00  6.54515e-02
