4
# CELL(abcABC): 1000.00000  1000.00000  1000.00000    90.00000    90.00000    90.00000  Step:         342  Bead:       0 positions{angstrom}  cell{angstrom}
       O -3.14630e+00  1.06795e+00  3.47154e-01
       H -2.51571e+00  5.53876e-01  7.67948e-01
       H -3.31048e+00  1.85247e+00  8.20619e-01
       H -3.61734e+00  7.12183e-01 -4.13436e-01
