4
# CELL(abcABC): 1000.00000  1000.00000  1000.00000    90.00000    90.00000    90.00000  Step:         384  Bead:       0 positions{angstrom}  cell{angstrom}
       O -3.14931e+00  1.07103e+00  3.55663e-01
       H -2.33173e+00  7.57679e-01 -9.41368e-02
       H -3.11869e+00  9.84169e-01  1.30243e+00
       H -3.94528e+00  1.32806e+00 -1.68223e-01
