14
# CELL(abcABC): 1000.00000  1000.00000  1000.00000    90.00000    90.00000    90.00000  Step:         111  Bead:       0 positions{angstrom}  cell{angstrom}
       C -5.99729e-01  6.81577e-01  2.98102e-02
       C  1.78971e-01 -4.86382e-01  7.41132e-01
       C -1.90001e+00  1.65089e-01 -6.77750e-01
       C -7.51875e-01  1.91708e+00  8.92221e-01
       H -1.33142e+00  1.91905e+00  1.81253e+00
       H -1.11660e+00  2.73091e+00  2.83500e-01
       H  2.50161e-01  2.15955e+00  1.23437e+00
       H -1.59764e+00 -5.80363e-01 -1.38313e+00
       H -2.39768e+00  9.61862e-01 -1.18995e+00
       H -2.57565e+00 -3.44786e-01  1.06318e-02
       H  1.22343e+00 -9.99734e-02  1.11294e+00
       H  2.27380e-01 -1.38315e+00  8.62070e-02
       H -3.58307e-01 -7.93376e-01  1.63101e+00
       H  1.22204e-01  7.71002e-01 -1.04381e+00
