4
# CELL(abcABC): 1000.00000  1000.00000  1000.00000    90.00000    90.00000    90.00000  Step:         742  Bead:       0 positions{angstrom}  cell{angstrom}
       O -3.14738e+00  1.06000e+00  3.63772e-01
       H -4.05786e+00  1.11762e+00  6.04988e-01
       H -2.86667e+00  1.49215e-01  3.33730e-01
       H -2.50174e+00  1.97791e+00 -2.73504e-02
