14
# CELL(abcABC): 1000.00000  1000.00000  1000.00000    90.00000    90.00000    90.00000  Step:         112  Bead:       0 positions{angstrom}  cell{angstrom}
       C -5.97867e-01  6.80803e-01  1.08479e-01
       C  5.08145e-02 -6.26011e-01  7.42870e-01
       C -1.72237e+00  4.14623e-01 -9.36809e-01
       C -8.01226e-01  1.79983e+00  1.08286e+00
       H -1.51926e+00  1.75720e+00  1.89157e+00
       H -1.00792e+00  2.71895e+00  5.17819e-01
       H  1.52459e-01  1.92013e+00  1.62159e+00
       H -1.32261e+00 -2.34176e-01 -1.66157e+00
       H -2.03146e+00  1.33784e+00 -1.39146e+00
       H -2.59266e+00 -1.21173e-01 -4.46415e-01
       H  1.12661e+00 -4.44664e-01  1.14553e+00
       H -4.84876e-02 -1.48055e+00  2.95552e-02
       H -5.40729e-01 -9.25065e-01  1.59864e+00
       H  2.06345e-01  9.09238e-01 -8.93816e-01
