4
# CELL(abcABC): 1000.00000  1000.00000  1000.00000    90.00000    90.00000    90.00000  Step:         427  Bead:       0 positions{angstrom}  cell{angstrom}
       O -3.15226e+00  1.06843e+00  3.44444e-01
       H -2.86105e+00  1.34490e-01  3.99088e-01
       H -2.84122e+00  1.47956e+00  1.17017e+00
       H -3.64657e+00  1.49684e+00 -3.51108e-01
