6
# CELL(abcABC): 1000.00000  1000.00000  1000.00000    90.00000    90.00000    90.00000  Step:         449  Bead:       0 positions{angstrom}  cell{angstrom}
       C -6.88489e-01  3.10506e+00 -5.58202e-01
       H -1.13738e+00  3.68209e+00 -1.39365e+00
       H  1.45031e-01  3.73122e+00 -2.06484e-01
       H -2.92731e-01  2.12622e+00 -9.26675e-01
       O -1.56828e+00  2.87618e+00  4.78779e-01
       H -2.12696e+00  2.64670e+00  1.26487e+00
