4
# CELL(abcABC): 1000.00000  1000.00000  1000.00000    90.00000    90.00000    90.00000  Step:         415  Bead:       0 positions{angstrom}  cell{angstrom}
       O -3.15260e+00  1.10375e+00  3.40871e-01
       H -2.65015e+00  5.87852e-01 -2.88539e-01
       H -2.60429e+00  1.09268e+00  1.15303e+00
       H -4.08901e+00  8.69857e-01  4.10377e-01
