4
# CELL(abcABC): 1000.00000  1000.00000  1000.00000    90.00000    90.00000    90.00000  Step:          93  Bead:       0 positions{angstrom}  cell{angstrom}
       O -3.14594e+00  1.06110e+00  3.70202e-01
       H -2.86850e+00  1.83285e-01  6.15555e-02
       H -2.57117e+00  1.76102e+00  5.71547e-02
       H -4.00960e+00  1.28313e+00  6.90569e-01
