14
# CELL(abcABC): 1000.00000  1000.00000  1000.00000    90.00000    90.00000    90.00000  Step:           0  Bead:       0 positions{angstrom}  cell{angstrom}
       C -5.92534e-01  6.63836e-01  1.17442e-01
       C  4.45070e-02 -6.31186e-01  7.44934e-01
       C -1.70854e+00  4.28533e-01 -9.56802e-01
       C -8.13070e-01  1.80312e+00  1.10157e+00
       H -1.57875e+00  1.67297e+00  1.85763e+00
       H -1.05026e+00  2.76889e+00  5.85558e-01
       H  1.37184e-01  1.95303e+00  1.65057e+00
       H -1.33172e+00 -2.11881e-01 -1.69540e+00
       H -2.00942e+00  1.35164e+00 -1.40272e+00
       H -2.56818e+00 -1.08285e-01 -5.36196e-01
       H  1.16625e+00 -5.04408e-01  1.04459e+00
       H -2.11085e-02 -1.47827e+00  4.61163e-02
       H -4.94693e-01 -8.76255e-01  1.63088e+00
       H  1.60955e-01  9.29137e-01 -8.85654e-01
14
# CELL(abcABC): 1000.00000  1000.00000  1000.00000    90.00000    90.00000    90.00000  Step:           1  Bead:       0 positions{angstrom}  cell{angstrom}
       C -5.86088e-01  6.64200e-01  1.15211e-01
       C  4.30470e-02 -6.32691e-01  7.45721e-01
       C -1.70753e+00  4.28554e-01 -9.56448e-01
       C -8.16663e-01  1.80458e+00  1.10254e+00
       H -1.58948e+00  1.66755e+00  1.84660e+00
       H -1.05406e+00  2.77374e+00  5.90635e-01
       H  1.40646e-01  1.96808e+00  1.65607e+00
       H -1.34288e+00 -2.19639e-01 -1.69217e+00
       H -2.01402e+00  1.35722e+00 -1.40757e+00
       H -2.57744e+00 -1.11926e-01 -5.32900e-01
       H  1.18472e+00 -5.02951e-01  1.03703e+00
       H -2.60644e-02 -1.49206e+00  4.61262e-02
       H -5.00913e-01 -8.85583e-01  1.63641e+00
       H  1.61089e-01  9.38140e-01 -8.83477e-01
14
# CELL(abcABC): 1000.00000  1000.00000  1000.00000    90.00000    90.00000    90.00000  Step:           2  Bead:       0 positions{angstrom}  cell{angstrom}
       C -5.79911e-01  6.64383e-01  1.13040e-01
       C  4.20927e-02 -6.34394e-01  7.46481e-01
       C -1.70619e+00  4.28945e-01 -9.55747e-01
       C -8.20144e-01  1.80625e+00  1.10336e+00
       H -1.60100e+00  1.66094e+00  1.83415e+00
       H -1.05862e+00  2.77596e+00  5.96777e-01
       H  1.41595e-01  1.98332e+00  1.66061e+00
       H -1.35371e+00 -2.29774e-01 -1.69191e+00
       H -2.01892e+00  1.36287e+00 -1.41153e+00
       H -2.58705e+00 -1.13912e-01 -5.29163e-01
       H  1.19697e+00 -5.01001e-01  1.02824e+00
       H -2.87053e-02 -1.50353e+00  4.66320e-02
       H -5.06757e-01 -8.95659e-01  1.64292e+00
       H  1.61128e-01  9.46858e-01 -8.81214e-01
14
# CELL(abcABC): 1000.00000  1000.00000  1000.00000    90.00000    90.00000    90.00000  Step:           3  Bead:       0 positions{angstrom}  cell{angstrom}
       C -5.73899e-01  6.64587e-01  1.11198e-01
       C  4.15254e-02 -6.35992e-01  7.46656e-01
       C -1.70470e+00  4.29180e-01 -9.54746e-01
       C -8.23229e-01  1.80826e+00  1.10401e+00
       H -1.61323e+00  1.65338e+00  1.82164e+00
       H -1.06214e+00  2.77471e+00  6.03620e-01
       H  1.39487e-01  1.99679e+00  1.66423e+00
       H -1.36403e+00 -2.41450e-01 -1.69464e+00
       H -2.02457e+00  1.36929e+00 -1.41431e+00
       H -2.59622e+00 -1.13819e-01 -5.24687e-01
       H  1.20336e+00 -4.99321e-01  1.01994e+00
       H -3.13267e-02 -1.51268e+00  4.84429e-02
       H -5.13266e-01 -9.05641e-01  1.64991e+00
       H  1.60951e-01  9.54719e-01 -8.78435e-01
14
# CELL(abcABC): 1000.00000  1000.00000  1000.00000    90.00000    90.00000    90.00000  Step:           4  Bead:       0 positions{angstrom}  cell{angstrom}
       C -5.68129e-01  6.65110e-01  1.09606e-01
       C  4.13233e-02 -6.37603e-01  7.46256e-01
       C -1.70357e+00  4.29399e-01 -9.53404e-01
       C -8.25901e-01  1.81034e+00  1.10466e+00
       H -1.62612e+00  1.64448e+00  1.81064e+00
       H -1.06520e+00  2.77095e+00  6.11336e-01
       H  1.33900e-01  2.00910e+00  1.66683e+00
       H -1.37210e+00 -2.54339e-01 -1.69917e+00
       H -2.03011e+00  1.37407e+00 -1.41622e+00
       H -2.60302e+00 -1.11980e-01 -5.21197e-01
       H  1.20323e+00 -4.98805e-01  1.00967e+00
       H -3.23862e-02 -1.51887e+00  5.16630e-02
       H -5.18437e-01 -9.14557e-01  1.65671e+00
       H  1.61271e-01  9.61476e-01 -8.74614e-01
14
# CELL(abcABC): 1000.00000  1000.00000  1000.00000    90.00000    90.00000    90.00000  Step:           5  Bead:       0 positions{angstrom}  cell{angstrom}
       C -5.62648e-01  6.66007e-01  1.07998e-01
       C  4.16094e-02 -6.39307e-01  7.45685e-01
       C -1.70265e+00  4.29401e-01 -9.52034e-01
       C -8.27972e-01  1.81253e+00  1.10563e+00
       H -1.64042e+00  1.63453e+00  1.79853e+00
       H -1.07098e+00  2.76437e+00  6.20976e-01
       H  1.25390e-01  2.02072e+00  1.66913e+00
       H -1.37764e+00 -2.65780e-01 -1.70634e+00
       H -2.03673e+00  1.37641e+00 -1.41866e+00
       H -2.60701e+00 -1.08689e-01 -5.17628e-01
       H  1.19606e+00 -4.99154e-01  9.98402e-01
       H -3.39439e-02 -1.52255e+00  5.68607e-02
       H -5.21195e-01 -9.22384e-01  1.66347e+00
       H  1.62514e-01  9.67479e-01 -8.71014e-01
14
# CELL(abcABC): 1000.00000  1000.00000  1000.00000    90.00000    90.00000    90.00000  Step:           6  Bead:       0 positions{angstrom}  cell{angstrom}
       C -5.57535e-01  6.66789e-01  1.06809e-01
       C  4.22424e-02 -6.40882e-01  7.45108e-01
       C -1.70147e+00  4.29253e-01 -9.50724e-01
       C -8.29918e-01  1.81524e+00  1.10656e+00
       H -1.65544e+00  1.62287e+00  1.78724e+00
       H -1.07606e+00  2.75477e+00  6.30176e-01
       H  1.11593e-01  2.03026e+00  1.67032e+00
       H -1.38203e+00 -2.76997e-01 -1.71484e+00
       H -2.04236e+00  1.37719e+00 -1.41995e+00
       H -2.60931e+00 -1.02212e-01 -5.14490e-01
       H  1.18245e+00 -5.00532e-01  9.85565e-01
       H -3.44812e-02 -1.52408e+00  6.28538e-02
       H -5.22403e-01 -9.29005e-01  1.66991e+00
       H  1.64706e-01  9.71653e-01 -8.68641e-01
14
# CELL(abcABC): 1000.00000  1000.00000  1000.00000    90.00000    90.00000    90.00000  Step:           7  Bead:       0 positions{angstrom}  cell{angstrom}
       C -5.52906e-01  6.67742e-01  1.06081e-01
       C  4.28454e-02 -6.42611e-01  7.44140e-01
       C -1.70003e+00  4.28928e-01 -9.49463e-01
       C -8.31666e-01  1.81779e+00  1.10752e+00
       H -1.66889e+00  1.60934e+00  1.77609e+00
       H -1.08241e+00  2.74509e+00  6.38371e-01
       H  9.63249e-02  2.03793e+00  1.67003e+00
       H -1.38493e+00 -2.86023e-01 -1.72481e+00
       H -2.04735e+00  1.37710e+00 -1.41870e+00
       H -2.60954e+00 -9.26119e-02 -5.12134e-01
       H  1.16440e+00 -5.02123e-01  9.73725e-01
       H -3.46899e-02 -1.52365e+00  6.85209e-02
       H -5.21843e-01 -9.33984e-01  1.67580e+00
       H  1.66950e-01  9.75591e-01 -8.65063e-01
14
# CELL(abcABC): 1000.00000  1000.00000  1000.00000    90.00000    90.00000    90.00000  Step:           8  Bead:       0 positions{angstrom}  cell{angstrom}
       C -5.48775e-01  6.68674e-01  1.05417e-01
       C  4.40097e-02 -6.44377e-01  7.43470e-01
       C -1.69887e+00  4.28193e-01 -9.48262e-01
       C -8.33025e-01  1.82053e+00  1.10834e+00
       H -1.68095e+00  1.59542e+00  1.76436e+00
       H -1.08854e+00  2.73586e+00  6.44589e-01
       H  7.81828e-02  2.04521e+00  1.66960e+00
       H -1.38888e+00 -2.93724e-01 -1.73479e+00
       H -2.04953e+00  1.37567e+00 -1.41513e+00
       H -2.60799e+00 -7.96752e-02 -5.09530e-01
       H  1.14204e+00 -5.04721e-01  9.60790e-01
       H -3.54037e-02 -1.52192e+00  7.60347e-02
       H -5.20560e-01 -9.38033e-01  1.67952e+00
       H  1.68989e-01  9.78628e-01 -8.61739e-01
14
# CELL(abcABC): 1000.00000  1000.00000  1000.00000    90.00000    90.00000    90.00000  Step:           9  Bead:       0 positions{angstrom}  cell{angstrom}
       C -5.45424e-01  6.69972e-01  1.04785e-01
       C  4.51047e-02 -6.46373e-01  7.42519e-01
       C -1.69772e+00  4.27020e-01 -9.47175e-01
       C -8.33872e-01  1.82320e+00  1.10953e+00
       H -1.69224e+00  1.58013e+00  1.75298e+00
       H -1.09465e+00  2.73037e+00  6.46942e-01
       H  5.76972e-02  2.05183e+00  1.66998e+00
       H -1.39213e+00 -2.99015e-01 -1.74355e+00
       H -2.04992e+00  1.37200e+00 -1.41130e+00
       H -2.60405e+00 -6.47319e-02 -5.06193e-01
       H  1.11744e+00 -5.08320e-01  9.48862e-01
       H -3.67544e-02 -1.51815e+00  8.37922e-02
       H -5.16543e-01 -9.41135e-01  1.68151e+00
       H  1.71847e-01  9.80174e-01 -8.57642e-01
14
# CELL(abcABC): 1000.00000  1000.00000  1000.00000    90.00000    90.00000    90.00000  Step:          10  Bead:       0 positions{angstrom}  cell{angstrom}
       C -5.42825e-01  6.71243e-01  1.03881e-01
       C  4.60089e-02 -6.48371e-01  7.41431e-01
       C -1.69651e+00  4.26030e-01 -9.45686e-01
       C -8.34420e-01  1.82545e+00  1.11080e+00
       H -1.70282e+00  1.56428e+00  1.74246e+00
       H -1.10231e+00  2.72700e+00  6.46347e-01
       H  3.77081e-02  2.05678e+00  1.67118e+00
       H -1.39431e+00 -3.02302e-01 -1.75039e+00
       H -2.04974e+00  1.36714e+00 -1.40772e+00
       H -2.59741e+00 -4.90381e-02 -5.02338e-01
       H  1.09211e+00 -5.12986e-01  9.38221e-01
       H -3.70952e-02 -1.51290e+00  8.99323e-02
       H -5.10215e-01 -9.41962e-01  1.68157e+00
       H  1.75184e-01  9.80789e-01 -8.52978e-01
