4
# CELL(abcABC): 1000.00000  1000.00000  1000.00000    90.00000    90.00000    90.00000  Step:         886  Bead:       0 positions{angstrom}  cell{angstrom}
       O -3.15940e+00  1.06192e+00  3.58097e-01
       H -2.96451e+00  1.53007e+00  1.12479e+00
       H -2.88109e+00  1.12544e-01  3.51078e-01
       H -3.38999e+00  1.57180e+00 -4.74441e-01
