6
# CELL(abcABC): 1000.00000  1000.00000  1000.00000    90.00000    90.00000    90.00000  Step:         838  Bead:       0 positions{angstrom}  cell{angstrom}
       C -1.33429e+00  2.38193e+00  3.99153e-01
       H -1.16236e+00  1.58385e+00 -3.29420e-01
       H -5.37658e-01  2.27600e+00  1.17538e+00
       H -2.37232e+00  2.34482e+00  7.09615e-01
       O -9.49287e-01  3.56848e+00 -3.43346e-01
       H -1.46978e+00  3.60923e+00 -1.17555e+00
