4
# CELL(abcABC): 1000.00000  1000.00000  1000.00000    90.00000    90.00000    90.00000  Step:           0  Bead:       0 positions{angstrom}  cell{angstrom}
       O -3.12167e+00  1.04195e+00  3.31702e-01
       H -3.10913e+00  5.55422e-01  1.13939e+00
       H -3.96418e+00  1.04306e+00 -8.59392e-02
       H -2.76129e+00  1.93317e+00  3.66987e-01
4
# CELL(abcABC): 1000.00000  1000.00000  1000.00000    90.00000    90.00000    90.00000  Step:           1  Bead:       0 positions{angstrom}  cell{angstrom}
       O -3.11998e+00  1.04224e+00  3.31146e-01
       H -3.11892e+00  5.47759e-01  1.14428e+00
       H -3.96499e+00  1.04191e+00 -8.54887e-02
       H -2.77752e+00  1.93738e+00  3.70470e-01
4
# CELL(abcABC): 1000.00000  1000.00000  1000.00000    90.00000    90.00000    90.00000  Step:           2  Bead:       0 positions{angstrom}  cell{angstrom}
       O -3.11839e+00  1.04245e+00  3.30614e-01
       H -3.12897e+00  5.40096e-01  1.14999e+00
       H -3.96594e+00  1.03980e+00 -8.64000e-02
       H -2.79181e+00  1.94376e+00  3.74123e-01
4
# CELL(abcABC): 1000.00000  1000.00000  1000.00000    90.00000    90.00000    90.00000  Step:           3  Bead:       0 positions{angstrom}  cell{angstrom}
       O -3.11679e+00  1.04261e+00  3.30092e-01
       H -3.13847e+00  5.31765e-01  1.15680e+00
       H -3.96860e+00  1.03788e+00 -8.79153e-02
       H -2.80506e+00  1.95154e+00  3.77107e-01
4
# CELL(abcABC): 1000.00000  1000.00000  1000.00000    90.00000    90.00000    90.00000  Step:           4  Bead:       0 positions{angstrom}  cell{angstrom}
       O -3.11528e+00  1.04270e+00  3.29792e-01
       H -3.14803e+00  5.23468e-01  1.16078e+00
       H -3.97155e+00  1.03582e+00 -9.08593e-02
       H -2.81651e+00  1.96054e+00  3.80832e-01
4
# CELL(abcABC): 1000.00000  1000.00000  1000.00000    90.00000    90.00000    90.00000  Step:           5  Bead:       0 positions{angstrom}  cell{angstrom}
       O -3.11377e+00  1.04255e+00  3.29706e-01
       H -3.15806e+00  5.16927e-01  1.16201e+00
       H -3.97545e+00  1.03420e+00 -9.34743e-02
       H -2.82643e+00  1.97103e+00  3.83592e-01
4
# CELL(abcABC): 1000.00000  1000.00000  1000.00000    90.00000    90.00000    90.00000  Step:           6  Bead:       0 positions{angstrom}  cell{angstrom}
       O -3.11230e+00  1.04238e+00  3.29833e-01
       H -3.16757e+00  5.12679e-01  1.15945e+00
       H -3.97961e+00  1.03034e+00 -9.74366e-02
       H -2.83609e+00  1.98182e+00  3.88095e-01
4
# CELL(abcABC): 1000.00000  1000.00000  1000.00000    90.00000    90.00000    90.00000  Step:           7  Bead:       0 positions{angstrom}  cell{angstrom}
       O -3.11107e+00  1.04205e+00  3.29920e-01
       H -3.17502e+00  5.10502e-01  1.15537e+00
       H -3.98278e+00  1.02547e+00 -1.00609e-01
       H -2.84507e+00  1.99404e+00  3.93955e-01
4
# CELL(abcABC): 1000.00000  1000.00000  1000.00000    90.00000    90.00000    90.00000  Step:           8  Bead:       0 positions{angstrom}  cell{angstrom}
       O -3.11014e+00  1.04174e+00  3.30177e-01
       H -3.18071e+00  5.10282e-01  1.14813e+00
       H -3.98318e+00  1.01899e+00 -1.04156e-01
       H -2.85373e+00  2.00579e+00  4.00676e-01
4
# CELL(abcABC): 1000.00000  1000.00000  1000.00000    90.00000    90.00000    90.00000  Step:           9  Bead:       0 positions{angstrom}  cell{angstrom}
       O -3.10949e+00  1.04157e+00  3.30369e-01
       H -3.18544e+00  5.10787e-01  1.14014e+00
       H -3.98042e+00  1.01192e+00 -1.06709e-01
       H -2.86213e+00  2.01501e+00  4.08169e-01
4
# CELL(abcABC): 1000.00000  1000.00000  1000.00000    90.00000    90.00000    90.00000  Step:          10  Bead:       0 positions{angstrom}  cell{angstrom}
       O -3.10906e+00  1.04146e+00  3.30704e-01
       H -3.18897e+00  5.12380e-01  1.13026e+00
       H -3.97536e+00  1.00477e+00 -1.09666e-01
       H -2.87038e+00  2.02236e+00  4.15695e-01
