14
# CELL(abcABC): 1000.00000  1000.00000  1000.00000    90.00000    90.00000    90.00000  Step:          91  Bead:       0 positions{angstrom}  cell{angstrom}
       C -6.48255e-01  6.40070e-01  8.05393e-03
       C  3.67203e-01 -2.67648e-01  7.11206e-01
       C -1.89196e+00 -7.92087e-02 -4.63853e-01
       C -8.62421e-01  1.99200e+00  7.19433e-01
       H -1.48825e+00  1.77232e+00  1.60332e+00
       H -1.48676e+00  2.66229e+00  1.18613e-01
       H  4.90242e-02  2.51725e+00  9.79864e-01
       H -1.72018e+00 -8.90694e-01 -1.13672e+00
       H -2.63986e+00  5.39742e-01 -9.81924e-01
       H -2.53234e+00 -5.37767e-01  3.38525e-01
       H  1.46785e+00  1.39442e-01  7.78304e-01
       H  4.93194e-01 -1.25287e+00  1.86368e-01
       H -1.95547e-02 -4.60739e-01  1.72436e+00
       H -1.20552e-01  7.58518e-01 -9.30409e-01
