14
# CELL(abcABC): 1000.00000  1000.00000  1000.00000    90.00000    90.00000    90.00000  Step:         117  Bead:       0 positions{angstrom}  cell{angstrom}
       C -6.22388e-01  6.91949e-01  1.01525e-01
       C  6.24495e-02 -6.00878e-01  7.33726e-01
       C -1.73399e+00  3.83260e-01 -9.10866e-01
       C -7.75510e-01  1.80609e+00  1.06938e+00
       H -1.47353e+00  1.71178e+00  1.92124e+00
       H -9.71878e-01  2.65750e+00  4.78286e-01
       H  1.79887e-01  1.90421e+00  1.55125e+00
       H -1.27653e+00 -2.77642e-01 -1.70761e+00
       H -2.07042e+00  1.33028e+00 -1.37077e+00
       H -2.58357e+00 -1.49837e-01 -3.70178e-01
       H  1.03462e+00 -3.84748e-01  1.12284e+00
       H -8.63828e-02 -1.43297e+00  7.26724e-02
       H -5.45425e-01 -9.23201e-01  1.62987e+00
       H  2.01076e-01  8.69129e-01 -8.72785e-01
