4
# CELL(abcABC): 1000.00000  1000.00000  1000.00000    90.00000    90.00000    90.00000  Step:         375  Bead:       0 positions{angstrom}  cell{angstrom}
       O -3.11593e+00  1.06624e+00  3.39522e-01
       H -3.11407e+00  5.81407e-01  1.15265e+00
       H -3.26452e+00  1.98364e+00  5.32760e-01
       H -3.54692e+00  5.80700e-01 -3.89124e-01
