14
# CELL(abcABC): 1000.00000  1000.00000  1000.00000    90.00000    90.00000    90.00000  Step:         111  Bead:       0 positions{angstrom}  cell{angstrom}
       C -6.04070e-01  6.82799e-01  3.55851e-02
       C  1.54248e-01 -5.14918e-01  7.46554e-01
       C -1.89142e+00  2.08371e-01 -7.35184e-01
       C -7.49830e-01  1.89612e+00  9.30876e-01
       H -1.33801e+00  1.86702e+00  1.84196e+00
       H -1.07852e+00  2.72817e+00  3.12368e-01
       H  2.74315e-01  2.09544e+00  1.26377e+00
       H -1.54303e+00 -5.14005e-01 -1.43549e+00
       H -2.32574e+00  1.06241e+00 -1.23858e+00
       H -2.57875e+00 -2.97447e-01 -2.66121e-02
       H  1.26535e+00 -1.95607e-01  1.04380e+00
       H  9.41667e-02 -1.44063e+00  1.40006e-01
       H -3.24855e-01 -7.48170e-01  1.69095e+00
       H  2.20591e-01  8.43075e-01 -9.47523e-01
