6
# CELL(abcABC): 1000.00000  1000.00000  1000.00000    90.00000    90.00000    90.00000  Step:         542  Bead:       0 positions{angstrom}  cell{angstrom}
       C -7.19565e-01  3.13034e+00 -6.20440e-01
       H -1.27377e+00  3.73311e+00 -1.30068e+00
       H  1.71995e-01  3.67297e+00 -2.74503e-01
       H -4.79665e-01  2.19361e+00 -1.00010e+00
       O -1.53695e+00  2.85367e+00  5.18565e-01
       H -1.95785e+00  2.64242e+00  1.42338e+00
