4
# CELL(abcABC): 1000.00000  1000.00000  1000.00000    90.00000    90.00000    90.00000  Step:         377  Bead:       0 positions{angstrom}  cell{angstrom}
       O -3.18306e+00  1.07303e+00  3.58868e-01
       H -2.82826e+00  4.67015e-01  9.91625e-01
       H -2.75157e+00  1.86989e+00  5.17665e-01
       H -3.28016e+00  7.01116e-01 -5.20087e-01
