14
# CELL(abcABC): 1000.00000  1000.00000  1000.00000    90.00000    90.00000    90.00000  Step:          95  Bead:       0 positions{angstrom}  cell{angstrom}
       C -6.44427e-01  6.40246e-01  7.48199e-02
       C  2.60560e-01 -4.33106e-01  7.15752e-01
       C -1.86113e+00  1.36779e-01 -6.68064e-01
       C -7.92343e-01  1.93848e+00  8.63225e-01
       H -1.49707e+00  1.73858e+00  1.67707e+00
       H -1.22679e+00  2.72369e+00  2.94716e-01
       H  1.16907e-01  2.30677e+00  1.28491e+00
       H -1.64516e+00 -6.59892e-01 -1.42173e+00
       H -2.43895e+00  8.95970e-01 -1.16456e+00
       H -2.59891e+00 -3.61413e-01 -8.50381e-03
       H  1.27846e+00 -1.64191e-01  8.22744e-01
       H  2.50247e-01 -1.33524e+00  1.29628e-01
       H -1.53007e-01 -6.65674e-01  1.73242e+00
       H -6.05247e-02  8.02332e-01 -7.96202e-01
