6
# CELL(abcABC): 1000.00000  1000.00000  1000.00000    90.00000    90.00000    90.00000  Step:         513  Bead:       0 positions{angstrom}  cell{angstrom}
       C -1.15764e+00  2.25159e+00 -1.70157e-01
       H -8.27945e-01  2.03702e+00 -1.18049e+00
       H -3.41712e-01  1.87444e+00  4.54409e-01
       H -2.14574e+00  1.88640e+00  8.54381e-03
       O -1.09884e+00  3.66147e+00  1.56148e-01
       H -1.95782e+00  4.09309e+00 -4.71392e-02
