4
# CELL(abcABC): 1000.00000  1000.00000  1000.00000    90.00000    90.00000    90.00000  Step:         782  Bead:       0 positions{angstrom}  cell{angstrom}
       O -3.15176e+00  1.06717e+00  3.44101e-01
       H -2.78773e+00  4.51838e-01 -2.26396e-01
       H -2.76707e+00  9.29024e-01  1.19003e+00
       H -3.80197e+00  1.74999e+00  2.59987e-01
