4
# CELL(abcABC): 1000.00000  1000.00000  1000.00000    90.00000    90.00000    90.00000  Step:         708  Bead:       0 positions{angstrom}  cell{angstrom}
       O -3.14499e+00  1.06672e+00  3.54783e-01
       H -3.88821e+00  1.24013e+00  8.72020e-01
       H -3.02798e+00  1.02408e-01  2.31872e-01
       H -2.54815e+00  1.79577e+00 -4.98297e-02
