6
# CELL(abcABC): 1000.00000  1000.00000  1000.00000    90.00000    90.00000    90.00000  Step:         517  Bead:       0 positions{angstrom}  cell{angstrom}
       C -7.49397e-01  2.81883e+00 -5.84306e-01
       H -1.08941e+00  3.39334e+00 -1.45466e+00
       H  2.77497e-01  3.17615e+00 -3.80906e-01
       H -7.60258e-01  1.79132e+00 -9.38743e-01
       O -1.49244e+00  3.15172e+00  5.39261e-01
       H -2.31810e+00  2.86218e+00  8.63372e-01
