6
# CELL(abcABC): 1000.00000  1000.00000  1000.00000    90.00000    90.00000    90.00000  Step:         450  Bead:       0 positions{angstrom}  cell{angstrom}
       C -7.44674e-01  2.43788e+00 -2.54850e-01
       H -2.70546e-01  2.74703e+00 -1.20360e+00
       H  2.30982e-02  2.12544e+00  4.64454e-01
       H -1.28628e+00  1.52947e+00 -4.44802e-01
       O -1.52229e+00  3.52416e+00  1.82246e-01
       H -1.93886e+00  3.44873e+00  1.01420e+00
