14
# CELL(abcABC): 1000.00000  1000.00000  1000.00000    90.00000    90.00000    90.00000  Step:         155  Bead:       0 positions{angstrom}  cell{angstrom}
       C -8.16710e-01  5.72171e-01 -1.17131e-01
       C  6.59041e-01  4.45290e-01  7.92947e-02
       C -1.59684e+00 -6.65231e-01  3.38070e-01
       C -1.32187e+00  1.88177e+00  6.48587e-01
       H -1.18545e+00  1.81186e+00  1.74544e+00
       H -2.37893e+00  1.99434e+00  4.26249e-01
       H -7.45048e-01  2.77698e+00  3.37048e-01
       H -1.23461e+00 -1.46022e+00 -2.89019e-01
       H -2.63053e+00 -4.26057e-01  1.85816e-01
       H -1.37793e+00 -8.95369e-01  1.38856e+00
       H  1.08746e+00 -3.98774e-01 -4.94512e-01
       H  7.87399e-01  3.57930e-01  1.15038e+00
       H  1.22217e+00  1.35526e+00 -2.64244e-01
       H -1.05413e+00  7.41735e-01 -1.19538e+00
