6
# CELL(abcABC): 1000.00000  1000.00000  1000.00000    90.00000    90.00000    90.00000  Step:         466  Bead:       0 positions{angstrom}  cell{angstrom}
       C -7.66002e-01  2.66750e+00 -5.47521e-01
       H -1.10455e+00  3.15673e+00 -1.49440e+00
       H  2.89043e-01  2.89420e+00 -4.07656e-01
       H -9.51488e-01  1.60748e+00 -6.02538e-01
       O -1.46927e+00  3.30282e+00  4.96017e-01
       H -2.29315e+00  2.96937e+00  8.41749e-01
