6
# CELL(abcABC): 1000.00000  1000.00000  1000.00000    90.00000    90.00000    90.00000  Step:         485  Bead:       0 positions{angstrom}  cell{angstrom}
       C -6.58062e-01  3.11221e+00 -5.98521e-01
       H -1.16849e+00  3.64249e+00 -1.36880e+00
       H  2.03392e-01  3.66682e+00 -2.85662e-01
       H -3.39299e-01  2.14604e+00 -9.65436e-01
       O -1.58997e+00  2.86335e+00  5.19173e-01
       H -2.12623e+00  2.84923e+00  1.19716e+00
