4
# CELL(abcABC): 1000.00000  1000.00000  1000.00000    90.00000    90.00000    90.00000  Step:         755  Bead:       0 positions{angstrom}  cell{angstrom}
       O -3.14618e+00  1.06540e+00  3.47021e-01
       H -3.64684e+00  4.41862e-01 -1.38060e-01
       H -2.24789e+00  6.59554e-01  4.21651e-01
       H -3.55066e+00  2.05749e+00  8.93676e-01
